/*--------------------------------*- C++ -*----------------------------------*\
| =========                 |                                                 |
| \\      /  F ield         | foam-extend: Open Source CFD                    |
|  \\    /   O peration     | Version:     4.0                                |
|   \\  /    A nd           | Web:         http://www.foam-extend.org         |
|    \\/     M anipulation  |                                                 |
\*---------------------------------------------------------------------------*/
FoamFile
{
    version     2.0;
    format      ascii;
    class       preCellScalarField;
    location    "0";
    object      Phi;
}
// * * * * * * * * * * * * * * * * * * * * * * * * * * * * * * * * * * * * * //

dimensions      [0 -1 0 0 0 0 0];

internalField uniform (0 0 0 0 0 0 0 0 0 0);

boundaryField
{
    left
    {
        // type            dirichlet;
        // value           uniform (-1 0 0);
       type            homogenous;
        value           uniform (0 0 0 0 0 0 0 0 0 0);
    }
    right
    {
        // type            dirichlet;
        // value           uniform (1 0 0);
       type            homogenous;
        value           uniform (0 0 0 0 0 0 0 0 0 0);
    }
    sides
    {
        // type            dirichlet;
        type            homogenous;
        value           uniform (0 0 0 0 0 0 0 0 0 0);
    }
}


// ************************************************************************* //
