/*--------------------------------*- C++ -*----------------------------------*\
| =========                 |                                                 |
| \\      /  F ield         | foam-extend: Open Source CFD                    |
|  \\    /   O peration     | Version:     3.2                                |
|   \\  /    A nd           | Web:         http://www.foam-extend.org         |
|    \\/     M anipulation  | For copyright notice see file Copyright         |
\*---------------------------------------------------------------------------*/
FoamFile
{
    version     2.0;
    format      ascii;
    class       dictionary;
    object      blockMeshDict;
}
// * * * * * * * * * * * * * * * * * * * * * * * * * * * * * * * * * * * * * //

convertToMeters 1;

vertices
(
    (0 0 0)
    (2 0 0)
    (2 2 0)
    (0 2 0)

    (0 0 1)
    (2 0 1)
    (2 2 1)
    (0 2 1)
);

blocks
(
    // Background
    hex (0 1 2 3 4 5 6 7) background (3 3 1) simpleGrading (1 1 1)
);

edges
();

patches
(
    patch left
    (
        (0 4 7 3)
    )
    patch right
    (
        (2 6 5 1)
    )
    wall bottom
    (
        (1 5 4 0)
    )
    wall top
    (
        (3 7 6 2)
    )
);

mergePatchPairs
(
);

// ************************************************************************* //
