/*--------------------------------*- C++ -*----------------------------------*\
| =========                 |                                                 |
| \\      /  F ield         | foam-extend: Open Source CFD                    |
|  \\    /   O peration     | Version:  1.4                                   |
|   \\  /    A nd           | Web:      http://www.openfoam.org               |
|    \\/     M anipulation  | For copyright notice see file Copyright         |
\*---------------------------------------------------------------------------*/

FoamFile
{
    version         2.0;
    format          ascii;
    class           cellScalarField;
    object          T;
}

// * * * * * * * * * * * * * * * * * * * * * * * * * * * * * * * * * * * * * //


dimensions [0 0 0 0 1 0 0];

internalField uniform (0 0 0 0 0 0 0 0 0 0);

boundaryField
{
    left
    {
        type homogenous;
        value uniform 0;
    }
    right
    {
        type homogenous;
        value uniform 0;
    }
    defaultFaces
    {
        type empty;
    }
}


// ************************************************************************* //
