/*--------------------------------*- C++ -*----------------------------------*\
| =========                 |                                                 |
| \\      /  F ield         | OpenFOAM: The Open Source CFD Toolbox           |
|  \\    /   O peration     | Version:  1.7.1                                 |
|   \\  /    A nd           | Web:      www.OpenFOAM.com                      |
|    \\/     M anipulation  |                                                 |
\*---------------------------------------------------------------------------*/
FoamFile
{
    version     2.0;
    format      ascii;
    class       dictionary;
    location    "constant";
    object      transportProperties;
}
// * * * * * * * * * * * * * * * * * * * * * * * * * * * * * * * * * * * * * //

//- fluid properties 
//- a: air; b: water
rhoa            rhoa [1 -3 0 0 0 0 0] 1261;
rhob            rhob [1 -3 0 0 0 0 0] 1261;
nua             nua [0 2 -1 0 0 0 0] 1.12e-3;
nub             nub [0 2 -1 0 0 0 0] 1.12e-3;
sigma           sigma [ 1 0 -2 0 0 0 0 ] 0.063;

// ************************************************************************* //
