/*--------------------------------*- C++ -*----------------------------------*\
| =========                 |                                                 |
| \\      /  F ield         | foam-extend: Open Source CFD                    |
|  \\    /   O peration     | Version:     4.1                                |
|   \\  /    A nd           | Web:         http://www.foam-extend.org         |
|    \\/     M anipulation  |                                                 |
\*---------------------------------------------------------------------------*/
FoamFile
{
    version     2.0;
    format      ascii;
    class       polyBoundaryMesh;
    location    "constant/polyMesh";
    object      boundary;
}
// * * * * * * * * * * * * * * * * * * * * * * * * * * * * * * * * * * * * * //

3
(
    left
    {
        type            patch;
        nFaces          1;
        startFace       9;
    }
    right
    {
        type            patch;
        nFaces          1;
        startFace       10;
    }
    sides
    {
        type            empty;
        nFaces          40;
        startFace       11;
    }
//    sides1
//    {
//        type            empty;
//        nFaces          20;
//        startFace       11;
//    }
//    sides2
//    {
//        type            empty;
//        nFaces          3;
//        startFace       31;
//    }
//    sides3
//    {
//        type            empty;
//        nFaces          17;
//        startFace       34;
//    }
)


// ************************************************************************* //
