/*--------------------------------*- C++ -*----------------------------------*\
| =========                 |                                                 |
| \\      /  F ield         | OpenFOAM: The Open Source CFD Toolbox           |
|  \\    /   O peration     | Version:  1.7.1                                 |
|   \\  /    A nd           | Web:      www.OpenFOAM.com                      |
|    \\/     M anipulation  |                                                 |
\*---------------------------------------------------------------------------*/
FoamFile
{
    version     2.0;
    format      ascii;
    class       dictionary;
    location    "constant";
    object      dynamicMeshDict;
}
// * * * * * * * * * * * * * * * * * * * * * * * * * * * * * * * * * * * * * //

dynamicFvMesh   dynamicRefineFvMesh;

dynamicRefineFvMeshCoeffs
{
    // How often to refine  (For the current test case, dynamic mesh adaption is turned off, 
    // so the refineInterval is specified very large. 
    refineInterval  10000000;
    // Field to be refinement on
    field           ordPar;
    // Refine field inbetween lower..upper
    lowerRefineLevel -0.9;
    upperRefineLevel 0.9;
    // If value < unrefineLevel unrefine
    unrefineLevel   10;
    // Have slower than 2:1 refinement
    nBufferLayers   3;
    // Refine cells only up to maxRefinement levels
    maxRefinement   2;
    // Stop refinement if maxCells reached
    maxCells        200000000;
    // Flux field and corresponding velocity field. Fluxes on changed
    // faces get recalculated by interpolating the velocity.
    correctFluxes
    (
        (
            phi
            U
//            ordPar
        )
    );
    // Write the refinement level as a volScalarField
    dumpLevel       true;
}


// ************************************************************************* //
