/*--------------------------------*- C++ -*----------------------------------*\
| =========                 |                                                 |
| \\      /  F ield         | foam-extend: Open Source CFD                    |
|  \\    /   O peration     | Version:     4.1                                |
|   \\  /    A nd           | Web:         http://www.foam-extend.org         |
|    \\/     M anipulation  |                                                 |
\*---------------------------------------------------------------------------*/
FoamFile
{
    version     2.0;
    format      binary;
    class       polyBoundaryMesh;
    location    "constant/polyMesh";
    object      boundary;
}
// * * * * * * * * * * * * * * * * * * * * * * * * * * * * * * * * * * * * * //

5
(
    top
    {
        type            patch;
        nFaces          90;
        startFace       7020;
    }
    bottom
    {
        type            patch;
        nFaces          90;
        startFace       7110;
    }
    left
    {
        type            patch;
        nFaces          90;
        startFace       7200;
    }
    right
    {
        type            patch;
        nFaces          90;
        startFace       7290;
    }
    frontAndBack
    {
        type            patch;
        nFaces          1800;
        startFace       7380;
    }
)


// ************************************************************************* //
