/*--------------------------------*- C++ -*----------------------------------*\
| =========                 |                                                 |
| \\      /  F ield         | foam-extend: Open Source CFD                    |
|  \\    /   O peration     | Version:     4.1                                |
|   \\  /    A nd           | Web:         http://www.foam-extend.org         |
|    \\/     M anipulation  |                                                 |
\*---------------------------------------------------------------------------*/
FoamFile
{
    version     2.0;
    format      binary;
    class       polyBoundaryMesh;
    location    "constant/polyMesh";
    object      boundary;
}
// * * * * * * * * * * * * * * * * * * * * * * * * * * * * * * * * * * * * * //

5
(
    top
    {
        type            patch;
        nFaces          100;
        startFace       19800;
    }
    bottom
    {
        type            patch;
        nFaces          100;
        startFace       19900;
    }
    left
    {
        type            patch;
        nFaces          100;
        startFace       20000;
    }
    right
    {
        type            patch;
        nFaces          100;
        startFace       20100;
    }
    frontAndBack
    {
        type            patch;
        nFaces          20000;
        startFace       20200;
    }
)


// ************************************************************************* //
