/*--------------------------------*- C++ -*----------------------------------*\
| =========                 |                                                 |
| \\      /  F ield         | foam-extend: Open Source CFD                    |
|  \\    /   O peration     | Version:     3.2                                |
|   \\  /    A nd           | Web:         http://www.foam-extend.org         |
|    \\/     M anipulation  | For copyright notice see file Copyright         |
\*---------------------------------------------------------------------------*/
FoamFile
{
    version     2.0;
    format      ascii;
    class       dictionary;
    object      fvSchemes;
}
// * * * * * * * * * * * * * * * * * * * * * * * * * * * * * * * * * * * * * //

ddtSchemes
{
    default none;//Euler;
}

gradSchemes
{
    default         none;//Gauss linear;
}

divSchemes
{
    default         none;
}

laplacianSchemes
{
    default         SIPLaplacian;//Gauss linear corrected;
}

dgLaplacianSchemes
{
    default         SIPLaplacian;//Gauss linear corrected;
    dgLaplacian(T)         SIPLaplacian;
}

interpolationSchemes
{
    default         none;//linear;
}

snGradSchemes
{
    default         none;//corrected;
}

fluxRequired
{}

// ************************************************************************* //
