/*--------------------------------*- C++ -*----------------------------------*\
| =========                 |                                                 |
| \\      /  F ield         | OpenFOAM: The Open Source CFD Toolbox           |
|  \\    /   O peration     | Version:  1.7.1                                 |
|   \\  /    A nd           | Web:      www.OpenFOAM.com                      |
|    \\/     M anipulation  |                                                 |
\*---------------------------------------------------------------------------*/
FoamFile
{
    version     2.0;
    format      ascii;
    class       dictionary;
    object      blockMeshDict;
}
// * * * * * * * * * * * * * * * * * * * * * * * * * * * * * * * * * * * * * //

convertToMeters 1;

vertices        
(
    (-1   0   -1)
    (1   0   -1)
    (1 0.1   -1)
    (-1 0.1   -1)
    (-1   0   1)
    (1   0   1)
    (1 0.1   1)
    (-1 0.1   1)
    // (-15   0   -15)
    // (15   0   -15)
    // (15 0.1   -15)
    // (-15 0.1   -15)
    // (-15   0   15)
    // (15   0   15)
    // (15 0.1   15)
    // (-15 0.1   15)

);

blocks          
(
    hex (0 1 2 3 4 5 6 7) (45 1 45) simpleGrading (1 1 1)
);

edges           
(
);

boundary
(
    top
    {
        type patch;
        faces
        (
            (4 5 6 7)
        );
    }
    bottom
    {
        type patch;
        faces
        (
            (0 3 2 1)
        );
    }
    left
    {
        type patch;
        faces
        (
            (0 4 7 3)
        );
    }
    right
    {
        type patch;
        faces
        (
            (2 6 5 1)
        );
    }

    frontAndBack
    {
        type patch;
        faces
        (
            (1 5 4 0)
            (3 7 6 2)
        );
    }
);

// ************************************************************************* //
